
     RDKit          3D

 21 21  0  0  0  0  0  0  0  0999 V2000
    3.3595   -0.2496   -0.7391 C   0  0  0  0  0  0  0  0  0  0  0  0
    2.0940    0.0391    0.0116 C   0  0  0  0  0  0  0  0  0  0  0  0
    1.9862   -0.0074    1.2303 O   0  0  0  0  0  0  0  0  0  0  0  0
    1.1005    0.3849   -0.8977 O   0  0  0  0  0  0  0  0  0  0  0  0
   -0.1413    0.5825   -0.2870 C   0  0  0  0  0  0  0  0  0  0  0  0
   -0.5187    1.9070   -0.0423 C   0  0  0  0  0  0  0  0  0  0  0  0
   -1.7568    2.1752    0.5382 C   0  0  0  0  0  0  0  0  0  0  0  0
   -2.6168    1.1259    0.8606 C   0  0  0  0  0  0  0  0  0  0  0  0
   -2.2441   -0.1964    0.5972 C   0  0  0  0  0  0  0  0  0  0  0  0
   -1.0012   -0.4843    0.0119 C   0  0  0  0  0  0  0  0  0  0  0  0
   -0.6107   -1.8850   -0.2975 C   0  0  0  0  0  0  0  0  0  0  0  0
    0.3954   -2.2574   -0.8725 O   0  0  0  0  0  0  0  0  0  0  0  0
   -1.5201   -2.7813    0.1318 O   0  0  0  0  0  0  0  0  0  0  0  0
    4.1296   -0.5797   -0.0361 H   0  0  0  0  0  0  0  0  0  0  0  0
    3.7067    0.6566   -1.2413 H   0  0  0  0  0  0  0  0  0  0  0  0
    3.1877   -1.0501   -1.4632 H   0  0  0  0  0  0  0  0  0  0  0  0
    0.1516    2.7238   -0.2947 H   0  0  0  0  0  0  0  0  0  0  0  0
   -2.0512    3.2020    0.7414 H   0  0  0  0  0  0  0  0  0  0  0  0
   -3.5820    1.3355    1.3163 H   0  0  0  0  0  0  0  0  0  0  0  0
   -2.9366   -0.9956    0.8515 H   0  0  0  0  0  0  0  0  0  0  0  0
   -1.1318   -3.6456   -0.1192 H   0  0  0  0  0  0  0  0  0  0  0  0
  1  2  1  0
  2  3  2  0
  2  4  1  0
  4  5  1  0
  5  6  2  0
  6  7  1  0
  7  8  2  0
  8  9  1  0
  9 10  2  0
 10 11  1  0
 11 12  2  0
 11 13  1  0
 10  5  1  0
  1 14  1  0
  1 15  1  0
  1 16  1  0
  6 17  1  0
  7 18  1  0
  8 19  1  0
  9 20  1  0
 13 21  1  0
M  END
